Version 4
SHEET 1 1768 1060
WIRE 0 576 -112 576
WIRE 352 576 0 576
WIRE 432 576 352 576
WIRE -112 608 -112 576
WIRE 432 640 432 576
WIRE 32 688 32 656
WIRE 64 688 32 688
WIRE 352 688 352 576
WIRE 352 688 288 688
WIRE -112 704 -112 688
WIRE 64 752 32 752
WIRE 432 752 432 720
WIRE 432 752 288 752
WIRE 432 784 432 752
WIRE 64 816 -32 816
WIRE 352 816 288 816
WIRE 0 880 0 576
WIRE 64 880 0 880
WIRE 320 880 288 880
WIRE 352 896 352 816
WIRE 432 896 432 864
WIRE 432 896 352 896
WIRE 432 928 432 896
WIRE 32 944 32 752
WIRE 352 944 352 896
WIRE 352 944 32 944
WIRE 320 976 320 880
FLAG 432 992 0
FLAG 32 656 0
FLAG -112 704 0
FLAG 320 1040 0
FLAG -32 816 Frequency_OUT
IOPIN -32 816 Out
SYMBOL Misc\\NE555 176 784 R0
SYMATTR InstName U1
SYMBOL res 416 768 R0
SYMATTR InstName R1
SYMATTR Value 180k
SYMBOL res 416 624 R0
SYMATTR InstName R2
SYMATTR Value 10k
SYMBOL cap 416 928 R0
SYMATTR InstName C1
SYMATTR Value Stretch_Sensor
SYMBOL voltage -112 592 R0
WINDOW 123 0 0 Left 0
WINDOW 39 0 0 Left 0
SYMATTR InstName V1
SYMATTR Value 3.3
SYMBOL cap 304 976 R0
SYMATTR InstName C2
SYMATTR Value 10n
TEXT -144 1016 Left 2 !.tran 0.1
